Version 4
SHEET 1 1824 692
WIRE 576 -1120 576 -1136
WIRE -512 -1104 -544 -1104
WIRE -240 -1104 -256 -1104
WIRE -512 -1040 -544 -1040
WIRE -144 -1040 -256 -1040
WIRE 96 -1040 -48 -1040
WIRE 224 -1040 96 -1040
WIRE 272 -1040 224 -1040
WIRE 352 -1040 336 -1040
WIRE 400 -1040 352 -1040
WIRE 496 -1040 480 -1040
WIRE 528 -1040 496 -1040
WIRE -512 -976 -544 -976
WIRE -240 -976 -256 -976
WIRE 576 -976 576 -1024
WIRE 800 -976 576 -976
WIRE 96 -960 96 -976
WIRE 496 -960 496 -1040
WIRE -512 -912 -544 -912
WIRE 352 -896 352 -1040
WIRE 224 -848 224 -960
WIRE 288 -848 224 -848
WIRE -144 -816 -144 -960
WIRE -48 -800 -48 -960
WIRE 96 -800 96 -896
WIRE 96 -800 -48 -800
WIRE 352 -800 96 -800
WIRE 496 -800 496 -880
WIRE 496 -800 352 -800
WIRE 576 -800 576 -976
WIRE 576 -800 496 -800
WIRE 624 -800 576 -800
WIRE 576 -640 576 -800
WIRE -512 -624 -544 -624
WIRE -240 -624 -256 -624
WIRE -512 -560 -544 -560
WIRE -144 -560 -256 -560
WIRE 96 -560 -48 -560
WIRE 224 -560 96 -560
WIRE 272 -560 224 -560
WIRE 352 -560 336 -560
WIRE 400 -560 352 -560
WIRE 496 -560 480 -560
WIRE 528 -560 496 -560
WIRE -512 -496 -544 -496
WIRE -240 -496 -256 -496
WIRE 96 -496 96 -512
WIRE 576 -496 576 -544
WIRE 784 -496 576 -496
WIRE 96 -480 96 -496
WIRE 496 -480 496 -560
WIRE -512 -432 -544 -432
WIRE -224 -432 -256 -432
WIRE 352 -416 352 -560
WIRE 224 -368 224 -480
WIRE 288 -368 224 -368
WIRE -144 -320 -144 -480
WIRE -48 -320 -48 -480
WIRE 96 -320 96 -416
WIRE 96 -320 -48 -320
WIRE 352 -320 96 -320
WIRE 496 -320 496 -400
WIRE 496 -320 352 -320
WIRE 576 -320 576 -496
WIRE 576 -320 496 -320
WIRE 576 -304 576 -320
WIRE 576 -272 576 -304
WIRE -624 176 -624 128
WIRE -416 176 -416 128
WIRE -192 176 -192 128
WIRE 144 208 144 176
WIRE 608 224 608 160
FLAG -416 176 0
FLAG -416 48 HV
FLAG -192 176 0
FLAG -192 48 LV
FLAG 576 -800 out
FLAG 576 -1136 HV
FLAG 624 -736 0
FLAG 576 -304 LV
FLAG -624 176 0
FLAG -624 48 V+
FLAG 144 208 0
FLAG 608 224 0
FLAG 144 96 HI
FLAG 608 80 LO
FLAG -544 -1104 HI
FLAG 496 -1040 g1
FLAG 496 -560 g2
FLAG -240 -1104 V+
FLAG -240 -624 V+
FLAG -144 -816 0
FLAG -240 -976 V+
FLAG -544 -1040 0
FLAG -544 -912 0
FLAG -544 -976 0
FLAG -256 -912 0
FLAG -240 -496 V+
FLAG -544 -624 LO
FLAG -544 -560 0
FLAG -544 -496 0
FLAG -544 -432 0
FLAG -224 -432 0
FLAG -144 -320 0
SYMBOL voltage -416 32 R0
WINDOW 123 0 0 Left 2
WINDOW 39 0 0 Left 2
SYMATTR InstName V3
SYMATTR Value 1200
SYMBOL voltage -192 32 R0
WINDOW 123 0 0 Left 2
WINDOW 39 0 0 Left 2
SYMATTR InstName V4
SYMATTR Value -10
SYMBOL res 496 -1056 R90
WINDOW 0 0 56 VBottom 2
WINDOW 3 32 56 VTop 2
SYMATTR InstName R3
SYMATTR Value 0
SYMBOL ind2 -160 -1056 R0
WINDOW 3 -3 118 Left 2
SYMATTR Value 1.5m
SYMATTR InstName L5
SYMATTR SpiceLine Rser=.4
SYMBOL ind2 -32 -1056 M0
SYMATTR InstName L6
SYMATTR Value 1.5m
SYMATTR SpiceLine Ipk=.09 Rser=.4
SYMBOL ind2 -160 -576 R0
WINDOW 3 -28 -36 Left 2
SYMATTR Value 1.5m
SYMATTR InstName L7
SYMATTR SpiceLine Rser=.4
SYMBOL ind2 -32 -576 M0
WINDOW 3 -9 -33 Left 2
SYMATTR Value 1.5m
SYMATTR InstName L8
SYMATTR SpiceLine Ipk=.09 Rser=.4
SYMBOL zener 112 -976 R180
WINDOW 0 24 64 Left 2
WINDOW 3 38 -82 Left 2
SYMATTR InstName D7
SYMATTR Value BZX84C8V2L
SYMATTR Description Diode
SYMATTR Type diode
SYMBOL cap 608 -800 R0
SYMATTR InstName C2
SYMATTR Value 2e-12
SYMBOL res 496 -576 R90
WINDOW 0 0 56 VBottom 2
WINDOW 3 32 56 VTop 2
SYMATTR InstName R4
SYMATTR Value 0
SYMBOL diode 272 -1024 R270
WINDOW 0 32 32 VTop 2
WINDOW 3 0 32 VBottom 2
SYMATTR InstName D9
SYMATTR Value 1N4148
SYMBOL diode 272 -544 R270
WINDOW 0 32 32 VTop 2
WINDOW 3 0 32 VBottom 2
SYMATTR InstName D12
SYMATTR Value 1N4148
SYMBOL pnp 288 -800 M180
SYMATTR InstName Q3
SYMATTR Value 2N3906
SYMBOL pnp 288 -320 M180
SYMATTR InstName Q4
SYMATTR Value 2N3906
SYMBOL zener 112 -496 R180
WINDOW 0 24 64 Left 2
WINDOW 3 38 -82 Left 2
SYMATTR InstName D8
SYMATTR Value BZX84C8V2L
SYMATTR Description Diode
SYMATTR Type diode
SYMBOL zener 80 -960 R0
SYMATTR InstName D10
SYMATTR Value BZX84C8V2L
SYMATTR Description Diode
SYMATTR Type diode
SYMBOL zener 80 -480 R0
SYMATTR InstName D11
SYMATTR Value BZX84C8V2L
SYMATTR Description Diode
SYMATTR Type diode
SYMBOL voltage -624 32 R0
WINDOW 123 0 0 Left 2
WINDOW 39 0 0 Left 2
SYMATTR InstName V1
SYMATTR Value 15
SYMBOL res 208 -1056 R0
SYMATTR InstName R1
SYMATTR Value 1k
SYMBOL res 208 -576 R0
SYMATTR InstName R2
SYMATTR Value 1k
SYMBOL voltage 144 80 R0
WINDOW 3 -387 -93 Left 2
WINDOW 123 0 0 Left 2
WINDOW 39 0 0 Left 2
SYMATTR Value PULSE(0 5 .5E-6 15E-9 15E-9 .5E-6 1E-6)
SYMATTR InstName V2
SYMBOL voltage 608 64 R0
WINDOW 3 -387 -93 Left 2
WINDOW 123 0 0 Left 2
WINDOW 39 0 0 Left 2
SYMATTR Value PULSE(0 5 0 15E-9 15E-9 .5E-6 1E-6)
SYMATTR InstName V7
SYMBOL nmos 528 -1120 R0
SYMATTR InstName M1
SYMATTR Value STP8NM60
SYMBOL res 480 -976 R0
SYMATTR InstName R5
SYMATTR Value 1000k
SYMBOL res 480 -496 R0
SYMATTR InstName R6
SYMATTR Value 1000k
SYMBOL nmos 528 -640 R0
SYMATTR InstName M4
SYMATTR Value STP8NM60
SYMBOL PowerProducts\\LTC1693-1 -384 -1008 R0
SYMATTR InstName U1
SYMBOL PowerProducts\\LTC1693-1 -384 -528 R0
SYMATTR InstName U2
TEXT -144 -1072 Left 2 !K3 L5 L6 1
TEXT -152 -432 Left 2 !K4 L7 L8 1
TEXT 224 112 Left 2 !.tran 20E-6
